13

Cu       3.18593345       3.87675759       0.17177909   
Cu       1.55407951       5.16642061       1.62288353   
Cu       3.90581777       4.71450510       2.45833292   
Cu       3.80438175       2.76263173       4.07544696   
Cu       3.01936493       0.71916429       2.79400349   
Cu       0.00000510       3.49525330       2.72460472   
Cu       1.93505159       4.47901170       4.03462555   
Cu       1.38682884       2.01047345       4.24235994   
Cu       2.28821477       2.94084592       2.20683040   
Cu       2.64320718       1.40654295       0.37904608   
Cu       0.66981930       1.17167714       1.95589761   
Cu       0.77514033       3.12424612       0.33432873   
Cu       4.57871154       2.39201697       1.68837777   
