9

  O         3.8673395893        5.1381719048        6.6037180923
  H         2.8723818958        4.7786975655        6.7931783159
  H         5.4660540901        5.5304512627        4.4816056046
  H         6.4785802826        5.5098568417        5.9532517525
  H         6.5562181395        4.1600077722        4.7913404358
  H         4.1625966784        3.5591036451        5.3267887792
  H         5.1666866372        3.5066489497        6.8058534704
  C         5.8848553133        4.8889491628        5.2672132381
  C         4.7912040171        4.1525247463        6.0034323252
