288
 Box: 20.022, 19.899, 13.383
 Si        13.1024038428        2.0458472411        8.2342916235
 Si        12.7601902315        7.2954115024        5.8181209754
 Si        15.6978957290        5.8956162358        9.8878637726
 Si        15.4758443238       -0.3963161060        1.2667343420
 Si         8.4803933680       17.2681780612        7.8209451577
 Si        25.4972760735        7.3791656710        3.1665051161
 Si        18.4989991577        9.5033319381       10.1885842663
 Si        18.5700064379       17.2440075150        9.7431827020
 Si        25.5969718396       -0.4354815819        3.3371204616
 Si         8.8336603445        9.4895133527        7.9742966995
 Si        15.8800886873        7.3058004820        1.0140590169
 Si        13.4406153155       -0.8679686273        3.3658009666
 Si        10.6749831939       17.9263597669        9.8997137173
 Si        23.4418654319        7.8459612149        0.9358377697
 Si        20.8770057213        8.9129246215        8.2364506457
 Si        20.6245754650       17.6722145613        7.6041993161
 Si        23.2595721594       -1.0400577918        1.3041730934
 Si        10.8106867881        9.0587671173       10.2189384394
 Si        13.4694731943        8.0011104735        2.9159642476
 Si        12.6837575931       -0.4912519755        6.3334639601
 Si        11.4799971971       17.2835787053       -0.6666536423
 Si        22.8220486487        7.0783719347       11.4560706105
 Si        21.6588681536        9.6192320126        5.3415332011
 Si        21.3620773745       17.2394790557        4.6751347875
 Si        22.4807214611       -0.4368180934       11.8049432174
 Si        11.5527777828        9.7232429449       -0.2855817127
 Si         9.5936910712       -0.3564543161        6.0506215156
 Si        14.5583490718       17.1574327006       -0.6278647450
 Si        19.7290167942        7.1168191608       11.8414420610
 Si        24.7100595914        9.7486104495        5.1464925968
 Si        24.4712983150       17.0811366207        4.9933869797
 Si        19.3947914523       -0.3873343542       -1.6157070172
 Si        14.6170988529        9.5902267143       -0.6791521628
 Si         9.7256572787        7.1515637238        6.0451593562
 Si         8.6081232048       -0.8302951940        3.2148580606
 Si        15.5730568564       17.8505002992        9.9580079130
 Si        18.8830512543        7.9911616051        1.2405347290
 Si        25.8054165404        8.9308963044        7.8982900692
 Si        25.4815013428       17.7477029197        7.7615241079
 Si        18.4546047497       -1.1364259122        1.2069694651
 Si        15.4958022161        9.0126768580        9.8459463410
 Si         8.5604511544        7.9474680513        3.3292239276
 Si        11.0284587788       -0.3004836933        1.4446694041
 Si        13.2059601938       16.9941374796        8.2144549142
 Si        21.1663574369        7.4105484565        3.1053036063
 Si        23.5329367176        9.6011267513        9.8154872995
 Si        23.0512579059       17.2721395072        9.5447217738
 Si        20.7539052654       -0.1203238326        2.9180267117
 Si        13.1097402908        9.5222022100        8.1103058385
 Si        10.8388703845        7.2626886134        1.4143960554
 Si        15.5517868442       14.8948624550        1.2609220701
 Si         8.6891610174        1.8382127357        8.0944271554
 Si        25.6161976173       11.8241969119        2.9873897273
 Si        18.6475304323        4.9681166112        9.9180383268
 Si        18.5084005545        1.8484347127        9.9151365501
 Si        25.4610870587       15.0124541078        2.9575132216
 Si         8.7203942326        4.9986376604        7.9994385262
 Si        15.5964816272       11.8090882480        1.3315532821
 Si        13.4424879623       15.8915839331        3.3303524983
 Si        10.8643315551        1.1912443301       10.2106452823
 Si        23.2532659073       10.9586274079        1.1050386787
 Si        20.8354981994        5.7698517549        7.8870108575
 Si        20.7488754485        0.9130638565        7.8638972125
 Si        23.2255797961       15.7386758073        0.9469136187
 Si        10.9105673696        5.9660562307        9.9728125283
 Si        13.4103361301       11.0765705893        3.3192157449
 Si        12.5852386121       14.8564869472        6.0802987360
 Si        11.7585129116        1.9841227392       -0.3583081302
 Si        22.4861054921       11.9064247456       11.6711220909
 Si        21.5665091219        5.1547199889        5.0127168625
 Si        21.4523557556        1.9914605505        5.0548991393
 Si        22.4760678779       15.0216931136       11.4377434504
 Si        11.7983045020        5.0754186598       -0.5734943946
 Si        12.4906730723       11.6930757694        6.1068601143
 Si         9.4920018143       14.9015260460        6.1017406945
 Si        14.8411572857        1.8891648820       -0.6809972415
 Si        19.4034185479       11.9444827957       11.7987042642
 Si        24.6731711751        5.0253415861        5.0077229162
 Si        24.5583948772        1.9575081698        5.1099572357
 Si        19.3527483303       14.9862447924       11.6985855380
 Si        14.8801183111        4.9663712854       -0.6130392050
 Si         9.3990787110       11.8493554293        6.0146137340
 Si         8.4036853215       15.9151743808        3.3506233562
 Si        15.6034418430        1.0667134192        9.7657468794
 Si        18.6307245751       11.0520976039        1.2440515558
 Si        25.7221749418        5.8096176507        7.8609886838
 Si        25.6860483424        0.9340565739        7.8220381783
 Si        18.5257348448       15.6744706259        1.3128485370
 Si         8.5594373759       11.0913192440        3.1453507019
 Si        10.8841181601       15.1953069320        1.6081813436
 Si        20.9635229957       11.6771526696        3.2061935763
 Si        23.3023458236        4.7184957476        9.4454907897
 Si        23.2880668647        1.5655051306        9.6259236263
 Si        20.9890689770       14.6949709571        2.7830745813
 Si        11.0870879908       12.1386645458        1.6416978219
  O        12.9368527663        3.4870754760        7.5973819971
  O        13.3530665131        5.8889855162        6.3586346550
  O        14.9094910420        5.2258102991        8.6589416532
  O        14.5756553292       -0.0025811727        2.5682466082
  O         9.2415872094       17.7457775971        9.1676931797
  O        24.7967941465        7.4600445041        1.7181651396
  O        19.6067408692        9.5415394384        9.0085004132
  O        19.4448569870       16.9163171991        8.4217255712
  O        24.6377325206       -0.6687156292        2.0578191640
  O         9.6410441581        9.7783226384        9.3458056245
  O        14.8306874269        7.4653564565        2.2315704730
  O        13.4280010092       -0.3275863109        4.8933575204
  O        10.5452312914       17.3256722744       11.3992114724
  O        23.4008175672        6.9636008965       -0.4188832712
  O        20.7745906883        9.2874590516        6.6609383599
  O        20.6035253155       17.0784290586        6.1014998652
  O        23.4014828291       -0.6616708914       -0.2645557403
  O        10.8715796759        9.8595437897       11.6344353711
  O        13.6015050787        7.7117643724        4.4974285941
  O        11.1255389284       -0.9097971091        6.1115790857
  O        13.0227635504       17.0801234831       -1.1543707868
  O        21.2592143141        7.5376381148       -1.8983456020
  O        23.2135398220        9.8703377859        5.7709190623
  O        22.9346704331       17.5906231495        4.8793990081
  O        20.9289933508       -0.3263418996       -1.0820887102
  O        13.0649937042        9.1315476548       -0.4894945323
  O        11.1997031529        7.1326641157        5.3726357751
  O         9.1420166121       -0.0067606735        4.5272905099
  O        15.5769594636       17.4885683789       11.5423579315
  O        19.5256934107        7.0505242221        0.0752775748
  O        25.7196797600        9.5321805883        6.3886760233
  O        24.8837904652       16.8431726278        6.5438645270
  O        18.4547640436       -0.9089604601       -0.4063978946
  O        14.9953428328        9.8663961457       11.1488422083
  O         8.6493682399        7.4624427406        4.8755740847
  O         9.4880513834       -0.4930033424        1.8974184276
  O        14.5075411486       16.9164890746        9.1753368138
  O        19.6906854373        7.8744404940        2.6379810199
  O        24.8797942858        9.7856387688        8.9248113049
  O        24.5528714376       17.6567384724        9.0868485248
  O        19.4342476217       -0.0925886229        1.9735969474
  O        14.6739540501        9.4565859971        8.5226879560
  O         9.5536488945        7.0605431883        2.3914867205
  O        11.9588421643       -0.6632125599        2.7272509990
  O        11.8533115674       17.1675500590        9.0864887618
  O        22.1552520795        7.4635407382        1.8310943383
  O        22.2433490267        9.5353457303        8.8374702251
  O        22.0817797632       17.4102268456        8.2586866904
  O        22.0788972495       -0.1674756574        1.9851594419
  O        12.2135705006        9.2086755236        9.4172962948
  O        12.1947804129        7.2102985405        2.3101309089
  O        14.4982796804       15.0086231171        2.4812201970
  O         9.4797975517        1.6619523038        9.5027300683
  O        24.6458485654       11.4484252445        1.7473373800
  O        19.6092612029        4.9805788385        8.5997293378
  O        19.6979423583        1.6545509202        8.8412680426
  O        24.6401522513       15.2542443643        1.5726810580
  O         9.5635534350        5.3008149245        9.3397544164
  O        14.7523359224       11.7711009474        2.7256844222
  O        13.5118898184       15.3479716912        4.8510759906
  O        10.7859511124        1.5756939212       11.7894907629
  O        22.9115570809       11.9285593767       -0.1461644003
  O        20.6844794388        5.7168011454        6.2703947429
  O        20.6811150124        1.6635495091        6.4380216251
  O        23.3200441762       15.5809715643       -0.6645219214
  O        11.2836871777        5.0622189213       11.2829924589
  O        13.4345288823       11.0306362148        4.9474883473
  O        11.0411428170       15.2416287676        5.7092400663
  O        13.2666549350        1.4909404117       -0.7417972750
  O        20.9312865484       11.4401921250       -1.8183215231
  O        23.1404317605        5.4770709966        5.2922625163
  O        22.9967900598        1.4993212336        5.2042274611
  O        20.9211935207       15.4185949678       -1.6534790084
  O        13.3579721135        5.5511490075       -0.4939048118
  O        10.9401657740       11.4364766253        5.6965936633
  O         8.5681826797       15.1723151963        4.7907301877
  O        15.4890725086        1.7427189242       11.2295364363
  O        19.0328339923       12.0209348154        0.0012004397
  O        25.5401357752        5.2254805581        6.3584098976
  O        25.2126866301        1.9068353203        6.6049716867
  O        18.7038394011       15.1815299006       -0.2189721782
  O        15.4048523361        5.0559861473       11.2469207434
  O         8.5705514556       11.7712221044        4.6230410902
  O         9.3920756472       15.2594209278        2.2392619619
  O        14.6746795462        1.8248745783        8.6729862783
  O        19.5009007796       11.4456798519        2.5528043127
  O        24.8084248303        4.9775784859        8.9149108889
  O        24.7917024977        1.1627864945        9.1595648335
  O        19.4405812095       14.7635178361        2.2994028342
  O         9.5703282450       11.8558880379        2.1411985024
  O        11.9425835673       15.7497929225        2.7187079125
  O        12.1862356155        1.9016921204        9.5779817094
  O        22.0840233596       11.0240705393        2.2275333091
  O        22.2465490299        5.0561030519        8.2579842618
  O        22.2445557937        0.9950884686        8.5075619254
  O        21.9874550485       14.8371957075        1.4961067910
  O        12.1106271373        5.9738439550        8.9227961367
  O        12.1076717430       11.9434900218        2.8929068641
  O        13.8484051796       17.4643376729        3.3056561140
  O        11.0459276903       -0.4046768297        9.9946495539
  O        23.3979339216        9.4344596074        0.5737920718
  O        20.8477965974        7.2983221247        8.4275397244
  O        20.3444123842       -0.6319375147        7.6056796164
  O        22.9112405514       17.2683207285        1.4112388503
  O        10.5434282118        7.4769126216       10.4906769988
  O        13.2698509074        9.5985750682        2.6501166891
  O         8.7347549219       17.4877580061        3.5533770940
  O        15.1543999204       -0.4877298129        9.8233902588
  O        18.9489614563        9.5375412321        0.7427576110
  O        25.2953102677        7.3806350821        7.9259655549
  O        25.5481507421       -0.5933014218        7.2755918205
  O        18.9529705853       17.2396551434        1.4906784493
  O        15.2480372527        7.4381933835       10.1580985462
  O         8.9779810297        9.5225028993        3.2235644148
  O        15.6532885901        0.9127832167        0.3307783974
  O         9.0603191590       15.8328700860        7.3525124013
  O        25.3019085153        5.8961906210        3.7971387634
  O        18.4501807226       10.9228008956       10.9886543010
  O        18.5353689190       15.9174989672       10.6609514164
  O        25.2981142459        0.9855655883        4.0533719773
  O         8.7387274437       10.8548924466        7.1030301367
  O        15.8188756359        5.8039634628        0.4092823158
  O        14.6653087690       18.3250414288        0.4936979165
  O         8.6496186364       -1.5557525963        6.6097619488
  O        24.7976980057        8.4736483267        4.1405265344
  O        18.7815201458        8.2864718287       11.2337460256
  O        19.2852150663       -1.4040510379       10.5019088067
  O        25.4514433745       18.2277357510        4.3824498546
  O         9.6370291740        8.3042671334        7.1898041361
  O        15.5725218784        8.3807579390       -0.1653584990
  O        14.9935861544       15.7356729803       -0.0041492085
  O         9.4752001147        0.9967098663        6.9385642197
  O        25.1264223872       11.1122330819        4.3706962737
  O        19.3671973461        5.6474389283       11.2245951764
  O        18.8694234480        1.0813932911       11.3092623424
  O        24.6387284301       15.6690890981        4.2070557013
  O         9.3939080423        5.7087675783        6.6961432304
  O        14.8412629941       10.9533580221        0.1727327368
  O        11.2850616597        1.2391025787        1.0016403309
  O        13.0973079396       15.5847839984        7.4313823452
  O        21.0931197567        5.8839796103        3.6445908909
  O        23.3991644187       10.8716827787       10.8215954576
  O        22.9925702083       15.7467897759       10.0841469906
  O        20.7606585113        1.2388015769        3.7989869658
  O        12.7787200918       11.0078630736        7.5378034778
  O        10.8771170531        6.0530450816        0.3347016219
  O        11.3727981937       -1.2328347201        0.1670928391
  O        13.4243881495       18.2389174585        7.1834583422
  O        21.6696511209        8.3752043014        4.2999870613
  O        23.6532983919        8.2132134712       10.6533771896
  O        22.5747734425       18.2412025290       10.7470666171
  O        20.6798823485       -1.4209244761        3.8845986068
  O        12.8506316003        8.4519667842        6.9354503220
  O        10.7117427150        8.7008128819        0.6601367939
  O        10.9577258163       16.0760311074        0.2565228726
  O        12.7658214967        0.9173876194        7.1090177024
  O        21.0159040584       10.9355251819        4.6402711382
  O        22.9863602341        5.6337931662       10.7435376548
  O        22.9841107870        0.9145890280       11.0744422654
  O        21.2579605831       15.8401386630        3.8826678805
  O        11.5359721693       11.1904498594        0.4080678220
  O        27.1220721978       -0.4127969855        2.8121617873
  O        17.0560179578       17.6541060498        9.3356192950
  O        17.3712382498        7.5449389275        1.5754280984
  O        27.3528555078        9.0282629390        8.3487884590
  O        26.9332288695       17.1644136390        8.1785842008
  O        16.9373432873       -0.9146655165        1.7380700287
  O        17.0537032628        9.2871084102        9.5027437128
  O        27.0476361859        7.7165002308        2.8884947460
  O        26.9046601538       15.7437139393        2.8126415355
  O        17.1397613811        1.2409039394        9.2553506316
  O        17.0644797516       11.1924938999        1.6442078746
  O        27.2722101787        5.6343652120        8.2622737230
  O         7.1872601055        1.2471166836        8.2589026913
  O        16.9742506038       15.5063562841        1.7399329236
  O        17.3005021726        5.8060421432        9.5801742200
  O        27.0855049038       11.2757073308        2.5602862780
  O        15.7342198919       13.3459883303        0.8244911547
  O         8.6494385757        3.4040008665        7.6829784599
  O        25.6271146281       13.4271415714        3.2253972930
  O        18.2953861178        3.4167309540       10.2494782175
  O        11.2074779532       13.6767772498        1.1559377650
  O        21.2561189569       13.2532221380        3.4680969652
  O        23.1493182950        3.1589679000        9.8317876887
  O        12.7711472042       13.2690275251        6.2784986262
  O        11.7000335750        3.5597522128       -0.0013392226
  O        22.6586215135       13.4341295924       11.1530375761
  O        21.3432630535        3.5738035880        4.7892154065
  O         9.3156900932       13.3623459143        6.6012651856
  O        14.9905587700        3.4099743578       -0.1580108546
  O        19.1988393651       13.4440574516       11.2259243346
  O        24.7150169312        3.4716106253        4.5464617373
 Al        13.2840159242        5.1476829754        7.9745685109
