40
Properties=species:S:1:pos:R:3:residuenames:S:1:residuenumbers:S:1 pbc="F F F"
H        3.12958190       0.62561032       3.06846148 COM 0 
O        3.03808966      -0.13470351       2.48151544 COM 0 
H        2.18220366      -0.49090681       2.74897006 COM 0 
H       -0.45647269      -2.59349113       2.45884195 COM 1 
O       -0.11232412      -3.01861851       3.25368916 COM 1 
H       -0.29162183      -3.94969512       3.07507707 COM 1 
H       -1.49819550      -3.22993188       0.97791610 COM 2 
O       -1.43379017      -4.09753734       1.39512866 COM 2 
H       -2.35347452      -4.38928543       1.39096321 COM 2 
H       -0.57629186      -0.08865717       2.23554499 COM 3 
O        0.03320200       0.40025312       1.66947294 COM 3 
H        0.54308986      -0.31159595       1.26420897 COM 3 
H       -1.17087735      -2.06759133       0.32722732 COM 4 
O       -0.44209298      -2.03193793       0.95854007 COM 4 
H        0.28669138      -2.39695638       0.44221800 COM 4 
C        4.91063842       0.35767834       0.21778532 PFN 5 
H        4.57208062       1.39235672       0.24499313 PFN 5 
H        5.96871075       0.32856593      -0.03825836 PFN 5 
H        4.76092938      -0.09906184       1.19496934 PFN 5 
H        4.34083291      -0.19114745      -0.53056281 PFN 5 
C        2.63109828      -0.00000000       0.54486817 PFN 6 
H        2.96025366      -1.02206332       0.72642892 PFN 6 
H        1.56776165       0.00257786       0.30985430 PFN 6 
H        2.80754443       0.60175566       1.43518827 PFN 6 
H        3.18883340       0.41772980      -0.29199881 PFN 6 
C        5.94786654       0.00545726       1.17359683 PFN 7 
H        6.44627085      -0.30320080       2.09133554 PFN 7 
H        5.46787351      -0.85698812       0.71346900 PFN 7 
H        5.19628405       0.75894726       1.40444217 PFN 7 
H        6.68103776       0.42307070       0.48514059 PFN 7 
C        0.05939472       0.21702284       1.98199793 PFN 8 
H        0.43937842      -0.53018382       2.67713503 PFN 8 
H        0.86797879       0.55670343       1.33645021 PFN 8 
H       -0.73070429      -0.22127320       1.37408911 PFN 8 
H       -0.33907405       1.06284496       2.54031736 PFN 8 
C       -3.00991616      -1.69013617      -1.16498874 PFN 9 
H       -3.42937171      -2.41386424      -1.86226610 PFN 9 
H       -3.81470629      -1.10934228      -0.71675413 PFN 9 
H       -2.46186962      -2.21444661      -0.38354357 PFN 9 
H       -2.33371703      -1.02289154      -1.69739115 PFN 9 
