    20 

   O      1.000000    1.000000    0.000000  
   C     -0.424000    1.000000    0.000000   
   C     -0.928000    1.000000    1.440000   
   C     -2.433000    1.002000    1.514000   
   C     -3.143000   -0.206000    1.575000   
    C     -4.539000   -0.204000    1.643000   
    C     -5.221000    1.008000    1.648000   
     O     -6.582000    1.057000    1.711000   
     C     -4.531000    2.212000    1.588000   
    C     -3.139000    2.213000    1.521000   
    H      1.282000    1.001000   -0.931000   
     H     -0.769000    0.110000   -0.538000  
   H     -0.768000    1.889000   -0.539000   
   H     -0.526000    1.870000    1.975000   
   H     -0.524000    0.131000    1.975000   
  H     -2.610000   -1.154000    1.572000   
  H     -5.068000   -1.150000    1.691000   
  H     -6.924000    0.148000    1.706000   
   H     -5.077000    3.151000    1.592000   
  H     -2.607000    3.161000    1.475000   

